Casos/pglib_opf_case2737sop_k/datosLineas.csv
fbus;tbus;r;x;b;rateA;rateB;rateC;ratio;angle;status;angmin;angmax
1;29;0;0.00028;0;167.34;200.81;251.01;0;0;1;-30;30
1;1421;0.0001;0.01;0;166.52;199.82;249.78;0;0;1;-30;30
13;2;0.00125;0.1;0;45.88;55.06;82.59;1.01;0;1;-30;30
3;9;0.00084;0.00355;0;41.29;49.55;74.33;0;0;1;-30;30
3;23;0.00094;0.00313;0;52.06;62.47;93.71;0;0;1;-30;30
4;12;0.00207;0.00925;0;208.73;250.48;313.1;0;0;1;-30;30
4;39;0.00233;0.008;0;206.39;247.67;309.58;0;0;1;-30;30
5;30;0;0.00028;0;199.61;239.53;299.41;0;0;1;-30;30
5;37;0.00244;0.00805;0;202.03;242.44;303.04;0;0;1;-30;30
40;6;0.00125;0.1;0;49.98;59.97;89.96;1.01;0;1;-30;30
7;42;0;0.00028;0;27.48;32.97;49.46;0;0;1;-30;30
8;12;0.00416;0.0195;0;59.12;70.95;106.42;0;0;1;-30;30
9;12;0.00238;0.00783;0;41.39;49.67;74.51;0;0;1;-30;30
10;14;0.00246;0.00908;0;168.69;202.43;303.65;0;0;1;-30;30
10;25;0.0002;0.00092;0;131.45;157.74;236.61;0;0;1;-30;30
10;35;0.01502;0.05819;0;83.45;100.14;150.21;0;0;1;-30;30
10;43;0.00186;0.00691;0;73.37;88.04;132.06;0;0;1;-30;30
10;1425;0.0001;0.01;0;172.67;207.2;259;0;0;1;-30;30
11;25;0.01413;0.06328;0;131.52;157.82;236.73;0;0;1;-30;30
12;20;0.02839;0.12908;0;46.08;55.3;82.95;0;0;1;-30;30
12;28;0.00496;0.01638;0;180.75;216.9;271.13;0;0;1;-30;30
12;41;0.01216;0.05532;0;60.69;72.83;91.04;0;0;1;-30;30
12;1419;0.0001;0.01;0;83.7;98.6;125.55;0;0;1;-30;30
13;15;0.00125;0.1;0;46.6;55.92;83.88;1.01;0;1;-30;30
13;26;0.00125;0.1;0;46.6;55.92;83.88;1.01;0;1;-30;30
13;30;0.00384;0.00936;0;402.23;482.68;603.35;0;0;1;-30;30
13;40;0;0.00022;0;250.91;301.09;376.37;0;0;1;-30;30
13;45;0.00125;0.1;0;46.6;55.92;83.88;1.01;0;1;-30;30
14;18;0.00036;0.00122;0;169.4;203.28;304.91;0;0;1;-30;30
40;16;0.00125;0.1;0;49.98;59.97;89.96;1.01;0;1;-30;30
17;29;0;0.00028;0;110.55;132.66;165.82;0;0;1;-30;30
17;1416;0.0001;0.01;0;83.7;98.6;125.55;0;0;1;-30;30
18;38;0;0.00027;0;50;60;90;0;0;1;-30;30
19;22;0.00057;0.00168;0;115.21;138.25;207.37;0;0;1;-30;30
19;43;0.00058;0.00165;0;75.53;90.64;135.96;0;0;1;-30;30
19;46;0;0.00022;0;50;60;90;0;0;1;-30;30
20;23;0.03085;0.10176;0;51.14;61.37;92.05;0;0;1;-30;30
20;33;0.00379;0.01253;0;96.01;115.21;172.82;0;0;1;-30;30
21;35;0.0081;0.02869;0;14.99;17.98;26.97;0;0;1;-30;30
22;33;0.01025;0.03521;0;116.65;139.98;209.97;0;0;1;-30;30
40;24;0.00125;0.1;0;49.98;59.97;89.96;1.01;0;1;-30;30
40;27;0.00125;0.1;0;49.98;59.97;89.96;1.01;0;1;-30;30
28;29;0;0.00028;0;179.24;215.09;268.86;0;0;1;-30;30
29;40;0.00392;0.00918;0;405.62;486.74;608.43;0;0;1;-30;30
30;31;0;0.00028;0;27.84;33.41;50.12;0;0;1;-30;30
30;404;0.0001;0.01;0;83.7;98.6;125.55;0;0;1;-30;30
32;33;0.00703;0.01458;0;21.39;25.66;38.5;0;0;1;-30;30
40;34;0.00125;0.1;0;49.98;59.97;89.96;1.01;0;1;-30;30
35;36;0.01761;0.06819;0;69.46;83.35;125.03;0;0;1;-30;30
36;42;0.00559;0.0192;0;70.03;84.04;126.06;0;0;1;-30;30
37;39;0.00229;0.00818;0;204.21;245.06;306.32;0;0;1;-30;30
40;44;0.00125;0.1;0;50.75;60.9;91.35;1.01;0;1;-30;30
41;42;0.00549;0.01962;0;61.18;73.41;91.77;0;0;1;-30;30
47;49;0;0.00022;0;50;60;90;0;0;1;-30;30
48;53;0.00109;0.01324;0;505.8;606.96;910.44;0;0;1;-30;30
48;57;0.00107;0.07923;0;282.48;338.98;508.47;0.99933;0;1;-30;30
48;64;0.00084;0.01064;0;1033.31;1239.97;1859.95;1.01;0;1;-30;30
48;850;0.0001;0.01;0;506.77;608.13;760.16;0;0;1;-30;30
49;73;0.02804;0.1256;0;86.13;103.35;155.03;0;0;1;-30;30
49;77;0.01126;0.04725;0;95.54;114.65;171.98;0;0;1;-30;30
49;86;0.00538;0.02004;0;90.42;108.5;162.76;0;0;1;-30;30
49;91;0.00269;0.01294;0;121.84;146.21;182.77;0;0;1;-30;30
50;56;0;0.00022;0;50;60;90;0;0;1;-30;30
51;57;0.00071;0.00182;0;122.8;147.36;221.03;0;0;1;-30;30
51;67;0.01037;0.02151;0;121.48;145.78;218.66;0;0;1;-30;30
52;81;0;0.00022;0;50;60;90;0;0;1;-30;30
53;54;0.00165;0.07193;0;264.38;317.26;396.57;1.01;0;1;-30;30
53;89;0.00221;0.01891;0;714.68;857.62;1072.02;0;0;1;-30;30
53;659;0.0001;0.01;0;603;723.6;904.5;0;0;1;-30;30
54;57;0.02972;0.12473;0;62.34;74.81;93.51;0;0;1;-30;30
54;57;0.03336;0.11005;0;69.51;83.42;104.27;0;0;1;-30;30
54;59;0.02722;0.11886;0;81.09;97.31;121.64;0;0;1;-30;30
54;80;0.00278;0.01078;0;58.12;69.75;87.18;0;0;1;-30;30
54;95;0.00244;0.00946;0;20.17;24.21;36.31;0;0;1;-30;30
54;95;0.00215;0.00965;0;19.93;23.92;35.88;0;0;1;-30;30
54;95;0.00244;0.00935;0;20.39;24.47;36.71;0;0;1;-30;30
55;83;0.00424;0.01913;0;22.49;26.99;40.49;0;0;1;-30;30
56;61;0.00565;0.02021;0;110.14;132.17;198.26;0;0;1;-30;30
56;78;0.02361;0.05307;0;50;60;90;0;0;1;-30;30
56;81;0.00561;0.02087;0;50;60;90;0;0;1;-30;30
56;86;0.04257;0.11516;0;54.54;65.44;81.8;0;0;1;-30;30
57;66;0.00094;0.00424;0;72.25;86.7;130.05;0;0;1;-30;30
57;72;0.03196;0.14997;0;97.55;117.06;146.32;0;0;1;-30;30
57;73;0.01907;0.07388;0;59.12;70.94;106.41;0;0;1;-30;30
57;79;0.01882;0.07227;0;50;60;90;0;0;1;-30;30
57;87;0.00201;0.00665;0;50;60;90;0;0;1;-30;30
57;88;0.00198;0.0068;0;50;60;90;0;0;1;-30;30
57;93;0.01804;0.05949;0;50;60;90;0;0;1;-30;30
57;93;0.01771;0.06081;0;50;60;90;0;0;1;-30;30
57;94;0.02313;0.07629;0;133.15;159.78;239.67;0;0;1;-30;30
58;90;0;0.00022;0;50;60;90;0;0;1;-30;30
59;68;0.00709;0.01794;0;92.51;111.02;138.77;0;0;1;-30;30
59;69;0.02085;0.05283;0;152.62;183.14;228.93;0;0;1;-30;30
59;70;0;0.00022;0;50;60;90;0;0;1;-30;30
59;83;0.01054;0.04794;0;66.72;80.06;120.09;0;0;1;-30;30
60;79;0.0061;0.02982;0;50;60;90;0;0;1;-30;30
60;93;0.00096;0.00338;0;50;60;90;0;0;1;-30;30
61;67;0.03782;0.07534;0;113.66;136.39;204.58;0;0;1;-30;30
62;75;0;0.00022;0;50;60;90;0;0;1;-30;30
63;85;0.01987;0.04289;0;57.74;69.28;86.6;0;0;1;-30;30
63;90;0.00076;0.00198;0;57.09;68.51;85.64;0;0;1;-30;30
64;803;0.0001;0.01;0;551.73;662.08;827.6;0;0;1;-30;30
66;65;0.00125;0.1;0;24.11;28.93;43.39;1.01;0;1;-30;30
66;82;0.00125;0.1;0;24.26;29.12;43.67;1.01;0;1;-30;30
66;96;0.00125;0.1;0;24.26;29.12;43.67;1.01;0;1;-30;30
68;71;0.01061;0.00521;0;90.9;109.08;136.34;0;0;1;-30;30
69;2001;0.0001;0.01;0;164.83;197.8;247.24;0;0;1;-30;30
71;73;0.00191;0.00075;0;89.37;107.24;134.05;0;0;1;-30;30
72;81;0.01691;0.07039;0;92.07;110.48;138.1;0;0;1;-30;30
73;74;0;0.00028;0;50;60;90;0;0;1;-30;30
75;77;0.0001;0.00033;0;96.33;115.59;173.39;0;0;1;-30;30
75;94;8.00E-05;0.0004;0;133.09;159.71;239.57;0;0;1;-30;30
76;88;0.03915;0.088;0;42.11;50.54;63.17;0;0;1;-30;30
76;90;0.00075;0.00183;0;42.75;51.3;64.13;0;0;1;-30;30
79;93;0.00707;0.03316;0;50;60;90;0;0;1;-30;30
80;85;0.00026;0.00109;0;57.93;69.51;86.89;0;0;1;-30;30
83;95;0.01675;0.06488;0;74.53;89.43;111.79;0;0;1;-30;30
84;86;0;0.00028;0;50;60;90;0;0;1;-30;30
86;1573;0.0001;0.01;0;83.7;98.6;125.55;0;0;1;-30;30
87;92;0.00012;0.00032;0;50;60;90;0;0;1;-30;30
89;830;0.0001;0.01;0;501.58;601.89;752.37;0;0;1;-30;30
91;1576;0.0001;0.01;0;83.7;98.6;125.55;0;0;1;-30;30
97;102;0.00427;0.01643;0;172.47;206.96;258.7;0;0;1;-30;30
97;105;0.00232;0.00928;0;165.29;198.35;247.93;0;0;1;-30;30
98;109;0.00944;0.04427;0;223.86;268.64;335.79;0;0;1;-30;30
98;113;0.0154;0.00602;0;234.46;281.36;351.7;0;0;1;-30;30
99;112;0;0.00028;0;98.42;118.11;147.63;0;0;1;-30;30
99;119;0.00885;0.02096;0;99.11;118.94;148.67;0;0;1;-30;30
100;106;0.00959;0.02332;0;213.42;256.1;320.13;0;0;1;-30;30
100;125;0;0.00022;0;147.9;177.48;221.85;0;0;1;-30;30
101;114;0.00765;0.01963;0;135.51;162.62;203.27;0;0;1;-30;30
101;125;0;0.00022;0;102.05;122.46;183.68;0;0;1;-30;30
102;104;0.00749;0.03376;0;182.24;218.69;273.37;0;0;1;-30;30
103;121;0;0.00022;0;196.08;235.3;294.13;0;0;1;-30;30
103;122;0.0052;0.0139;0;207.38;248.85;311.07;0;0;1;-30;30
104;115;0.01632;0.05787;0;215.57;258.69;323.36;0;0;1;-30;30
105;572;0.0001;0.01;0;122.69;147.23;184.04;0;0;1;-30;30
106;116;0;0.00022;0;168.91;202.7;304.04;0;0;1;-30;30
107;114;0;0.00022;0;133.55;160.26;200.33;0;0;1;-30;30
107;119;0;0.00022;0;99.05;118.86;148.57;0;0;1;-30;30
108;117;0.01019;0.02833;0;131.21;157.46;196.82;0;0;1;-30;30
108;125;0;0.00022;0;141.32;169.58;211.98;0;0;1;-30;30
109;111;0;0.00022;0;228.24;273.89;342.36;0;0;1;-30;30
110;112;0;0.00022;0;83.23;99.87;124.84;0;0;1;-30;30
110;123;0.0034;0.00872;0;83.16;99.8;124.74;0;0;1;-30;30
111;124;0.00654;0.0272;0;230.88;277.05;346.31;0;0;1;-30;30
113;115;0;0.00022;0;240.45;288.54;360.67;0;0;1;-30;30
116;118;0;0.00022;0;168.89;202.66;304;0;0;1;-30;30
117;120;0;0.00022;0;132.96;159.55;199.44;0;0;1;-30;30
118;126;0.00612;0.01467;0;187.82;225.38;338.07;0;0;1;-30;30
120;123;0;0.00022;0;82.97;99.56;124.45;0;0;1;-30;30
121;125;0;0.00022;0;181.57;217.88;272.36;0;0;1;-30;30
122;124;0.00315;0.00128;0;227.26;272.71;340.89;0;0;1;-30;30
126;664;0.0001;0.01;0;146.7;176.04;220.05;0;0;1;-30;30
142;127;0.00125;0.1;0;50;60;90;0.99351;0;1;-30;30
128;136;0.00125;0.1;0;44.87;53.84;80.77;1.00356;0;1;-30;30
128;145;0.00154;0.01634;0;154.77;185.72;278.59;0;0;1;-30;30
128;145;0.00157;0.01604;0;157.61;189.13;283.7;0;0;1;-30;30
128;146;0.00068;0.0089;0;848.39;1018.07;1272.59;0;0;1;-30;30
128;147;0.00072;0.03809;0;306.15;367.38;459.22;1.01;0;1;-30;30
128;150;0.00194;0.02225;0;287.77;345.33;431.66;0;0;1;-30;30
128;181;0.00107;0.00871;0;165.12;198.15;247.68;0;0;1;-30;30
128;196;0.00125;0.1;0;50;60;90;0.99782;0;1;-30;30
128;197;0.00125;0.1;0;50;60;90;0.99782;0;1;-30;30
128;198;0.00125;0.1;0;50;60;90;0.99782;0;1;-30;30
128;199;0.00125;0.1;0;50;60;90;0.99782;0;1;-30;30
128;989;0.0001;0.01;0;516.88;620.26;775.32;0;0;1;-30;30
138;129;0.00212;0.08472;0;114.62;137.54;206.31;1.00004;0;1;-30;30
138;130;0.00212;0.08472;0;114.62;137.54;206.31;1.00004;0;1;-30;30
138;131;0.00212;0.08472;0;114.62;137.54;206.31;1.00004;0;1;-30;30
138;132;0.00212;0.08472;0;114.62;137.54;206.31;1.00004;0;1;-30;30
138;133;0.00212;0.08472;0;114.62;137.54;206.31;1.00004;0;1;-30;30
138;134;0.00212;0.08472;0;114.62;137.54;206.31;1.00004;0;1;-30;30
135;141;0.00019;0.02119;0;366.95;440.34;660.52;0.99168;0;1;-30;30
135;141;0.00019;0.02079;0;368.36;442.03;663.05;1.00007;0;1;-30;30
135;176;0.00053;0.02122;0;421.77;506.12;759.19;1.00328;0;1;-30;30
135;187;0.00053;0.02122;0;421.77;506.12;759.19;1.00328;0;1;-30;30
135;188;0.00053;0.02122;0;421.77;506.12;759.19;1.00328;0;1;-30;30
135;189;0.00053;0.02122;0;421.77;506.12;759.19;1.00328;0;1;-30;30
135;194;0.00013;0.00154;0;641.9;770.28;962.85;0;0;1;-30;30
135;194;0.00012;0.00157;0;641.35;769.62;962.02;0;0;1;-30;30
137;144;0.0008;0.00784;0;1034.07;1240.89;1551.11;0;0;1;-30;30
137;173;0.00066;0.00602;0;1061.08;1273.3;1591.62;0;0;1;-30;30
138;152;0.00021;0.00288;0;461.79;554.15;692.69;0;0;1;-30;30
138;152;0.0002;0.00294;0;452.52;543.03;678.78;0;0;1;-30;30
138;173;0.00065;0.00764;0;690.94;829.13;1243.69;0;0;1;-30;30
138;173;0.00064;0.0078;0;676.94;812.32;1218.48;0;0;1;-30;30
138;179;0.00212;0.08472;0;116.39;139.66;209.5;1.00004;0;1;-30;30
138;180;0.00212;0.08472;0;116.39;139.66;209.5;1.00004;0;1;-30;30
139;141;0.00339;0.02053;0;502.82;603.39;754.24;0;0;1;-30;30
139;154;0.00169;0.00933;0;301.05;361.26;541.89;0;0;1;-30;30
155;139;0.00065;0.03746;0;303.37;364.05;546.07;0.99408;0;1;-30;30
155;139;0.00052;0.0273;0;421.52;505.82;758.73;0.99;0;1;-30;30
139;186;0.00105;0.00797;0;558.71;670.46;838.07;0;0;1;-30;30
139;205;0.00119;0.00875;0;587.56;705.07;881.34;0;0;1;-30;30
140;155;0.00051;0.00549;0;955.8;1146.96;1720.44;0;0;1;-30;30
140;173;0.00061;0.00582;0;470.51;564.61;705.77;0;0;1;-30;30
140;201;0.00023;0.02191;0;452.53;543.04;814.56;0.99;0;1;-30;30
141;151;0.00101;0.00719;0;210.09;252.1;378.15;0;0;1;-30;30
142;144;0.0008;0.01072;0;809;970.79;1456.19;0;0;1;-30;30
...
